  Page 1                                    Mon Feb 10 23:39:27 2025

  ******************************************************************
  *                           E P A N E T                          *
  *                   Hydraulic and Water Quality                  *
  *                   Analysis for Pipe Networks                   *
  *                         Version 2.2                            *
  ******************************************************************
  
  Analysis begun Mon Feb 10 23:39:27 2025

  Analysis ended Mon Feb 10 23:39:27 2025
